Circuit: * C:\Share\Ham\Projects\qrp-l project\Active AF Filter 3.asc

WARNING: Node N017 is floating.
WARNING: Node N016 is floating.

Direct Newton iteration for .op point succeeded.
Date: Sat Aug 23 04:17:09 2008
Total elapsed time: 0.172 seconds.

tnom = 27
temp = 27
method = trap
totiter = 21
traniter = 0
tranpoints = 0
accept = 0
rejected = 0
trancuriters = 21
matrix size = 36
fillins = 27
solver = Normal

