Circuit: * S:\Ham\Projects\qrp-l project\Active AF Filter 2.asc

WARNING: Node N016 is floating.
WARNING: Node N015 is floating.

Direct Newton iteration for .op point succeeded.
Date: Sun Jul 15 05:48:21 2007
Total elapsed time: 0.734 seconds.

tnom = 27
temp = 27
method = trap
totiter = 7
traniter = 0
tranpoints = 0
accept = 0
rejected = 0
trancuriters = 7
matrix size = 35
fillins = 25
solver = Normal

