Circuit: * D:\Share\Ham\Projects\qrp-l project\Active AF Filter.asc

WARNING: Node N014 is floating.
WARNING: Node N013 is floating.

Direct Newton iteration for .op point succeeded.

Date: Mon Dec 28 09:09:02 2009
Total elapsed time: 0.030 seconds.

tnom = 27
temp = 27
method = trap
totiter = 20
traniter = 0
tranpoints = 0
accept = 0
rejected = 0
matrix size = 29
fillins = 17
solver = Normal
Matrix Compiler1:     153 opcodes
Matrix Compiler2: 2.65 KB object code size

