Circuit: * D:\Share\Ham\Projects\qrp-l project\Active AF Filter - Fixed.asc

Direct Newton iteration for .op point succeeded.

Date: Mon Dec 28 21:26:49 2009
Total elapsed time: 0.021 seconds.

tnom = 27
temp = 27
method = trap
totiter = 6
traniter = 0
tranpoints = 0
accept = 0
rejected = 0
matrix size = 33
fillins = 15
solver = Normal
Matrix Compiler1:     174 opcodes
Matrix Compiler2: 3.04 KB object code size

