Circuit: * S:\Ham\Projects\qrp-l project\AF Diplexer.asc

Date: Fri Apr 11 08:07:40 2008
Total elapsed time: 0.360 seconds.

tnom = 27
temp = 27
method = trap
totiter = 0
traniter = 0
tranpoints = 0
accept = 0
rejected = 0
trancuriters = 0
matrix size = 6
fillins = 1
solver = Normal

