Circuit: * D:\Share\Ham\Projects\qrp-l project\Common Base Amp.asc

Direct Newton iteration for .op point succeeded.

Date: Mon Dec 28 08:31:28 2009
Total elapsed time: 0.019 seconds.

tnom = 27
temp = 27
method = trap
totiter = 7
traniter = 0
tranpoints = 0
accept = 0
rejected = 0
matrix size = 9
fillins = 3
solver = Normal
Matrix Compiler1:      29 opcodes
Matrix Compiler2: 715 bytes object code size

