Circuit: * D:\Share\Ham\Projects\qrp-l project\Diplexer.asc


Date: Mon Dec 28 08:35:32 2009
Total elapsed time: 0.032 seconds.

tnom = 27
temp = 27
method = trap
totiter = 0
traniter = 0
tranpoints = 0
accept = 0
rejected = 0
matrix size = 4
fillins = 1
solver = Normal

