Circuit: * S:\Ham\Projects\qrp-l project\Output LP Filter.asc

Date: Sat Oct 13 15:30:01 2007
Total elapsed time: 0.063 seconds.

tnom = 27
temp = 27
method = trap
totiter = 0
traniter = 0
tranpoints = 0
accept = 0
rejected = 0
trancuriters = 0
matrix size = 4
fillins = 0
solver = Normal

