Circuit: * S:\Ham\Projects\qrp-l project\RF Driver.asc

Direct Newton iteration for .op point succeeded.
Date: Sat Oct 13 09:43:39 2007
Total elapsed time: 0.843 seconds.

tnom = 27
temp = 27
method = modified trap
totiter = 4768
traniter = 4763
tranpoints = 2061
accept = 2034
rejected = 27
trancuriters = 0
matrix size = 15
fillins = 0
solver = Normal

