Circuit: * S:\Ham\Projects\qrp-l project\RF Preamp.asc

Direct Newton iteration for .op point succeeded.
Date: Wed Nov 21 20:34:03 2007
Total elapsed time: 0.266 seconds.

tnom = 27
temp = 27
method = trap
totiter = 7
traniter = 0
tranpoints = 0
accept = 0
rejected = 0
trancuriters = 7
matrix size = 15
fillins = 1
solver = Normal

